
---------- Begin Simulation Statistics ----------
simSeconds                                   0.000190                       # Number of seconds simulated (Second)
simTicks                                    190244000                       # Number of ticks simulated (Tick)
finalTick                                   190244000                       # Number of ticks from beginning of simulation (restored from checkpoints and never reset) (Tick)
simFreq                                  1000000000000                       # The number of ticks per simulated second ((Tick/Second))
hostSeconds                                      0.59                       # Real time elapsed on the host (Second)
hostTickRate                                322981198                       # The number of ticks simulated per host second (ticks/s) ((Tick/Second))
hostMemory                                     690272                       # Number of bytes of host memory used (Byte)
simInsts                                       310294                       # Number of instructions simulated (Count)
simOps                                         312086                       # Number of ops (including micro ops) simulated (Count)
hostInstRate                                   526726                       # Simulator instruction rate (inst/s) ((Count/Second))
hostOpRate                                     529764                       # Simulator op (including micro ops) rate (op/s) ((Count/Second))
system.clk_domain.clock                          1000                       # Clock period in ticks (Tick)
system.cpu.numCycles                           380488                       # Number of cpu cycles simulated (Cycle)
system.cpu.cpi                               1.226218                       # CPI: cycles per instruction (core level) ((Cycle/Count))
system.cpu.ipc                               0.815516                       # IPC: instructions per cycle (core level) ((Count/Cycle))
system.cpu.numWorkItemsStarted                      0                       # Number of work items this cpu started (Count)
system.cpu.numWorkItemsCompleted                    0                       # Number of work items this cpu completed (Count)
system.cpu.issuedInstType_0::No_OpClass             0      0.00%      0.00% # Number of instructions issued per FU type, per thread (Count)
system.cpu.issuedInstType_0::IntAlu            249541     78.71%     78.71% # Number of instructions issued per FU type, per thread (Count)
system.cpu.issuedInstType_0::IntMult             8229      2.60%     81.31% # Number of instructions issued per FU type, per thread (Count)
system.cpu.issuedInstType_0::IntDiv                 5      0.00%     81.31% # Number of instructions issued per FU type, per thread (Count)
system.cpu.issuedInstType_0::FloatAdd               0      0.00%     81.31% # Number of instructions issued per FU type, per thread (Count)
system.cpu.issuedInstType_0::FloatCmp               0      0.00%     81.31% # Number of instructions issued per FU type, per thread (Count)
system.cpu.issuedInstType_0::FloatCvt               0      0.00%     81.31% # Number of instructions issued per FU type, per thread (Count)
system.cpu.issuedInstType_0::FloatMult              0      0.00%     81.31% # Number of instructions issued per FU type, per thread (Count)
system.cpu.issuedInstType_0::FloatMultAcc            0      0.00%     81.31% # Number of instructions issued per FU type, per thread (Count)
system.cpu.issuedInstType_0::FloatDiv               0      0.00%     81.31% # Number of instructions issued per FU type, per thread (Count)
system.cpu.issuedInstType_0::FloatMisc              0      0.00%     81.31% # Number of instructions issued per FU type, per thread (Count)
system.cpu.issuedInstType_0::FloatSqrt              0      0.00%     81.31% # Number of instructions issued per FU type, per thread (Count)
system.cpu.issuedInstType_0::SimdAdd                0      0.00%     81.31% # Number of instructions issued per FU type, per thread (Count)
system.cpu.issuedInstType_0::SimdAddAcc             0      0.00%     81.31% # Number of instructions issued per FU type, per thread (Count)
system.cpu.issuedInstType_0::SimdAlu                0      0.00%     81.31% # Number of instructions issued per FU type, per thread (Count)
system.cpu.issuedInstType_0::SimdCmp                0      0.00%     81.31% # Number of instructions issued per FU type, per thread (Count)
system.cpu.issuedInstType_0::SimdCvt              512      0.16%     81.47% # Number of instructions issued per FU type, per thread (Count)
system.cpu.issuedInstType_0::SimdMisc             256      0.08%     81.55% # Number of instructions issued per FU type, per thread (Count)
system.cpu.issuedInstType_0::SimdMult               0      0.00%     81.55% # Number of instructions issued per FU type, per thread (Count)
system.cpu.issuedInstType_0::SimdMultAcc          532      0.17%     81.72% # Number of instructions issued per FU type, per thread (Count)
system.cpu.issuedInstType_0::SimdMatMultAcc            0      0.00%     81.72% # Number of instructions issued per FU type, per thread (Count)
system.cpu.issuedInstType_0::SimdShift              0      0.00%     81.72% # Number of instructions issued per FU type, per thread (Count)
system.cpu.issuedInstType_0::SimdShiftAcc            0      0.00%     81.72% # Number of instructions issued per FU type, per thread (Count)
system.cpu.issuedInstType_0::SimdDiv                0      0.00%     81.72% # Number of instructions issued per FU type, per thread (Count)
system.cpu.issuedInstType_0::SimdSqrt               0      0.00%     81.72% # Number of instructions issued per FU type, per thread (Count)
system.cpu.issuedInstType_0::SimdFloatAdd            0      0.00%     81.72% # Number of instructions issued per FU type, per thread (Count)
system.cpu.issuedInstType_0::SimdFloatAlu            0      0.00%     81.72% # Number of instructions issued per FU type, per thread (Count)
system.cpu.issuedInstType_0::SimdFloatCmp            0      0.00%     81.72% # Number of instructions issued per FU type, per thread (Count)
system.cpu.issuedInstType_0::SimdFloatCvt            0      0.00%     81.72% # Number of instructions issued per FU type, per thread (Count)
system.cpu.issuedInstType_0::SimdFloatDiv            0      0.00%     81.72% # Number of instructions issued per FU type, per thread (Count)
system.cpu.issuedInstType_0::SimdFloatMisc            0      0.00%     81.72% # Number of instructions issued per FU type, per thread (Count)
system.cpu.issuedInstType_0::SimdFloatMult            0      0.00%     81.72% # Number of instructions issued per FU type, per thread (Count)
system.cpu.issuedInstType_0::SimdFloatMultAcc            0      0.00%     81.72% # Number of instructions issued per FU type, per thread (Count)
system.cpu.issuedInstType_0::SimdFloatMatMultAcc            0      0.00%     81.72% # Number of instructions issued per FU type, per thread (Count)
system.cpu.issuedInstType_0::SimdFloatSqrt            0      0.00%     81.72% # Number of instructions issued per FU type, per thread (Count)
system.cpu.issuedInstType_0::SimdReduceAdd            0      0.00%     81.72% # Number of instructions issued per FU type, per thread (Count)
system.cpu.issuedInstType_0::SimdReduceAlu            0      0.00%     81.72% # Number of instructions issued per FU type, per thread (Count)
system.cpu.issuedInstType_0::SimdReduceCmp            0      0.00%     81.72% # Number of instructions issued per FU type, per thread (Count)
system.cpu.issuedInstType_0::SimdFloatReduceAdd            0      0.00%     81.72% # Number of instructions issued per FU type, per thread (Count)
system.cpu.issuedInstType_0::SimdFloatReduceCmp            0      0.00%     81.72% # Number of instructions issued per FU type, per thread (Count)
system.cpu.issuedInstType_0::SimdAes                0      0.00%     81.72% # Number of instructions issued per FU type, per thread (Count)
system.cpu.issuedInstType_0::SimdAesMix             0      0.00%     81.72% # Number of instructions issued per FU type, per thread (Count)
system.cpu.issuedInstType_0::SimdSha1Hash            0      0.00%     81.72% # Number of instructions issued per FU type, per thread (Count)
system.cpu.issuedInstType_0::SimdSha1Hash2            0      0.00%     81.72% # Number of instructions issued per FU type, per thread (Count)
system.cpu.issuedInstType_0::SimdSha256Hash            0      0.00%     81.72% # Number of instructions issued per FU type, per thread (Count)
system.cpu.issuedInstType_0::SimdSha256Hash2            0      0.00%     81.72% # Number of instructions issued per FU type, per thread (Count)
system.cpu.issuedInstType_0::SimdShaSigma2            0      0.00%     81.72% # Number of instructions issued per FU type, per thread (Count)
system.cpu.issuedInstType_0::SimdShaSigma3            0      0.00%     81.72% # Number of instructions issued per FU type, per thread (Count)
system.cpu.issuedInstType_0::SimdSha3               0      0.00%     81.72% # Number of instructions issued per FU type, per thread (Count)
system.cpu.issuedInstType_0::SimdSm4e               0      0.00%     81.72% # Number of instructions issued per FU type, per thread (Count)
system.cpu.issuedInstType_0::SimdCrc                0      0.00%     81.72% # Number of instructions issued per FU type, per thread (Count)
system.cpu.issuedInstType_0::SimdPredAlu            0      0.00%     81.72% # Number of instructions issued per FU type, per thread (Count)
system.cpu.issuedInstType_0::SimdDotProd            0      0.00%     81.72% # Number of instructions issued per FU type, per thread (Count)
system.cpu.issuedInstType_0::Matrix                 0      0.00%     81.72% # Number of instructions issued per FU type, per thread (Count)
system.cpu.issuedInstType_0::MatrixMov              0      0.00%     81.72% # Number of instructions issued per FU type, per thread (Count)
system.cpu.issuedInstType_0::MatrixOP               0      0.00%     81.72% # Number of instructions issued per FU type, per thread (Count)
system.cpu.issuedInstType_0::MemRead            34508     10.88%     92.60% # Number of instructions issued per FU type, per thread (Count)
system.cpu.issuedInstType_0::MemWrite           21900      6.91%     99.51% # Number of instructions issued per FU type, per thread (Count)
system.cpu.issuedInstType_0::FloatMemRead            1      0.00%     99.51% # Number of instructions issued per FU type, per thread (Count)
system.cpu.issuedInstType_0::FloatMemWrite            0      0.00%     99.51% # Number of instructions issued per FU type, per thread (Count)
system.cpu.issuedInstType_0::InstPrefetch            0      0.00%     99.51% # Number of instructions issued per FU type, per thread (Count)
system.cpu.issuedInstType_0::SimdUnitStrideLoad          522      0.16%     99.68% # Number of instructions issued per FU type, per thread (Count)
system.cpu.issuedInstType_0::SimdUnitStrideStore          258      0.08%     99.76% # Number of instructions issued per FU type, per thread (Count)
system.cpu.issuedInstType_0::SimdUnitStrideMaskLoad            0      0.00%     99.76% # Number of instructions issued per FU type, per thread (Count)
system.cpu.issuedInstType_0::SimdUnitStrideMaskStore            0      0.00%     99.76% # Number of instructions issued per FU type, per thread (Count)
system.cpu.issuedInstType_0::SimdStridedLoad            0      0.00%     99.76% # Number of instructions issued per FU type, per thread (Count)
system.cpu.issuedInstType_0::SimdStridedStore            0      0.00%     99.76% # Number of instructions issued per FU type, per thread (Count)
system.cpu.issuedInstType_0::SimdIndexedLoad            0      0.00%     99.76% # Number of instructions issued per FU type, per thread (Count)
system.cpu.issuedInstType_0::SimdIndexedStore            0      0.00%     99.76% # Number of instructions issued per FU type, per thread (Count)
system.cpu.issuedInstType_0::SimdWholeRegisterLoad            0      0.00%     99.76% # Number of instructions issued per FU type, per thread (Count)
system.cpu.issuedInstType_0::SimdWholeRegisterStore            0      0.00%     99.76% # Number of instructions issued per FU type, per thread (Count)
system.cpu.issuedInstType_0::SimdUnitStrideFaultOnlyFirstLoad            0      0.00%     99.76% # Number of instructions issued per FU type, per thread (Count)
system.cpu.issuedInstType_0::SimdUnitStrideSegmentedLoad            0      0.00%     99.76% # Number of instructions issued per FU type, per thread (Count)
system.cpu.issuedInstType_0::SimdUnitStrideSegmentedStore            0      0.00%     99.76% # Number of instructions issued per FU type, per thread (Count)
system.cpu.issuedInstType_0::SimdUnitStrideSegmentedFaultOnlyFirstLoad            0      0.00%     99.76% # Number of instructions issued per FU type, per thread (Count)
system.cpu.issuedInstType_0::SimdStrideSegmentedLoad            0      0.00%     99.76% # Number of instructions issued per FU type, per thread (Count)
system.cpu.issuedInstType_0::SimdStrideSegmentedStore            0      0.00%     99.76% # Number of instructions issued per FU type, per thread (Count)
system.cpu.issuedInstType_0::SimdExt              512      0.16%     99.92% # Number of instructions issued per FU type, per thread (Count)
system.cpu.issuedInstType_0::SimdFloatExt            0      0.00%     99.92% # Number of instructions issued per FU type, per thread (Count)
system.cpu.issuedInstType_0::SimdConfig           257      0.08%    100.00% # Number of instructions issued per FU type, per thread (Count)
system.cpu.issuedInstType_0::SimdBf16Add            0      0.00%    100.00% # Number of instructions issued per FU type, per thread (Count)
system.cpu.issuedInstType_0::SimdBf16Cmp            0      0.00%    100.00% # Number of instructions issued per FU type, per thread (Count)
system.cpu.issuedInstType_0::SimdBf16Cvt            0      0.00%    100.00% # Number of instructions issued per FU type, per thread (Count)
system.cpu.issuedInstType_0::SimdBf16DotProd            0      0.00%    100.00% # Number of instructions issued per FU type, per thread (Count)
system.cpu.issuedInstType_0::SimdBf16MatMultAcc            0      0.00%    100.00% # Number of instructions issued per FU type, per thread (Count)
system.cpu.issuedInstType_0::SimdBf16Mult            0      0.00%    100.00% # Number of instructions issued per FU type, per thread (Count)
system.cpu.issuedInstType_0::SimdBf16MultAcc            0      0.00%    100.00% # Number of instructions issued per FU type, per thread (Count)
system.cpu.issuedInstType_0::Bf16Cvt                0      0.00%    100.00% # Number of instructions issued per FU type, per thread (Count)
system.cpu.issuedInstType_0::System                 0      0.00%    100.00% # Number of instructions issued per FU type, per thread (Count)
system.cpu.issuedInstType_0::total             317033                       # Number of instructions issued per FU type, per thread (Count)
system.cpu.branchPred.lookups_0::NoBranch           16      0.03%      0.03% # Number of BP lookups (Count)
system.cpu.branchPred.lookups_0::Return          8527     14.88%     14.91% # Number of BP lookups (Count)
system.cpu.branchPred.lookups_0::CallDirect          318      0.55%     15.46% # Number of BP lookups (Count)
system.cpu.branchPred.lookups_0::CallIndirect         8281     14.45%     29.92% # Number of BP lookups (Count)
system.cpu.branchPred.lookups_0::DirectCond        29043     50.68%     80.60% # Number of BP lookups (Count)
system.cpu.branchPred.lookups_0::DirectUncond        10812     18.87%     99.47% # Number of BP lookups (Count)
system.cpu.branchPred.lookups_0::IndirectCond            0      0.00%     99.47% # Number of BP lookups (Count)
system.cpu.branchPred.lookups_0::IndirectUncond          304      0.53%    100.00% # Number of BP lookups (Count)
system.cpu.branchPred.lookups_0::total          57301                       # Number of BP lookups (Count)
system.cpu.branchPred.squashes_0::NoBranch            1      0.01%      0.01% # Number of branches that got squashed (completely removed) as an earlier branch was mispredicted. (Count)
system.cpu.branchPred.squashes_0::Return          114      1.58%      1.60% # Number of branches that got squashed (completely removed) as an earlier branch was mispredicted. (Count)
system.cpu.branchPred.squashes_0::CallDirect          123      1.71%      3.31% # Number of branches that got squashed (completely removed) as an earlier branch was mispredicted. (Count)
system.cpu.branchPred.squashes_0::CallIndirect           59      0.82%      4.13% # Number of branches that got squashed (completely removed) as an earlier branch was mispredicted. (Count)
system.cpu.branchPred.squashes_0::DirectCond         3040     42.24%     46.37% # Number of branches that got squashed (completely removed) as an earlier branch was mispredicted. (Count)
system.cpu.branchPred.squashes_0::DirectUncond         3830     53.22%     99.58% # Number of branches that got squashed (completely removed) as an earlier branch was mispredicted. (Count)
system.cpu.branchPred.squashes_0::IndirectCond            0      0.00%     99.58% # Number of branches that got squashed (completely removed) as an earlier branch was mispredicted. (Count)
system.cpu.branchPred.squashes_0::IndirectUncond           30      0.42%    100.00% # Number of branches that got squashed (completely removed) as an earlier branch was mispredicted. (Count)
system.cpu.branchPred.squashes_0::total          7197                       # Number of branches that got squashed (completely removed) as an earlier branch was mispredicted. (Count)
system.cpu.branchPred.corrected_0::NoBranch           14      0.40%      0.40% # Number of branches that got corrected but not yet commited. Branches get corrected by decode or after execute. Also a branch misprediction can be detected out-of-order. Therefore, a corrected branch might not end up beeing committed in case an even earlier branch was mispredicted (Count)
system.cpu.branchPred.corrected_0::Return           17      0.48%      0.88% # Number of branches that got corrected but not yet commited. Branches get corrected by decode or after execute. Also a branch misprediction can be detected out-of-order. Therefore, a corrected branch might not end up beeing committed in case an even earlier branch was mispredicted (Count)
system.cpu.branchPred.corrected_0::CallDirect           64      1.81%      2.69% # Number of branches that got corrected but not yet commited. Branches get corrected by decode or after execute. Also a branch misprediction can be detected out-of-order. Therefore, a corrected branch might not end up beeing committed in case an even earlier branch was mispredicted (Count)
system.cpu.branchPred.corrected_0::CallIndirect           33      0.93%      3.62% # Number of branches that got corrected but not yet commited. Branches get corrected by decode or after execute. Also a branch misprediction can be detected out-of-order. Therefore, a corrected branch might not end up beeing committed in case an even earlier branch was mispredicted (Count)
system.cpu.branchPred.corrected_0::DirectCond         3307     93.60%     97.23% # Number of branches that got corrected but not yet commited. Branches get corrected by decode or after execute. Also a branch misprediction can be detected out-of-order. Therefore, a corrected branch might not end up beeing committed in case an even earlier branch was mispredicted (Count)
system.cpu.branchPred.corrected_0::DirectUncond           76      2.15%     99.38% # Number of branches that got corrected but not yet commited. Branches get corrected by decode or after execute. Also a branch misprediction can be detected out-of-order. Therefore, a corrected branch might not end up beeing committed in case an even earlier branch was mispredicted (Count)
system.cpu.branchPred.corrected_0::IndirectCond            0      0.00%     99.38% # Number of branches that got corrected but not yet commited. Branches get corrected by decode or after execute. Also a branch misprediction can be detected out-of-order. Therefore, a corrected branch might not end up beeing committed in case an even earlier branch was mispredicted (Count)
system.cpu.branchPred.corrected_0::IndirectUncond           22      0.62%    100.00% # Number of branches that got corrected but not yet commited. Branches get corrected by decode or after execute. Also a branch misprediction can be detected out-of-order. Therefore, a corrected branch might not end up beeing committed in case an even earlier branch was mispredicted (Count)
system.cpu.branchPred.corrected_0::total         3533                       # Number of branches that got corrected but not yet commited. Branches get corrected by decode or after execute. Also a branch misprediction can be detected out-of-order. Therefore, a corrected branch might not end up beeing committed in case an even earlier branch was mispredicted (Count)
system.cpu.branchPred.earlyResteers_0::NoBranch            0                       # Number of branches that got redirected after decode. (Count)
system.cpu.branchPred.earlyResteers_0::Return            0                       # Number of branches that got redirected after decode. (Count)
system.cpu.branchPred.earlyResteers_0::CallDirect            0                       # Number of branches that got redirected after decode. (Count)
system.cpu.branchPred.earlyResteers_0::CallIndirect            0                       # Number of branches that got redirected after decode. (Count)
system.cpu.branchPred.earlyResteers_0::DirectCond            0                       # Number of branches that got redirected after decode. (Count)
system.cpu.branchPred.earlyResteers_0::DirectUncond            0                       # Number of branches that got redirected after decode. (Count)
system.cpu.branchPred.earlyResteers_0::IndirectCond            0                       # Number of branches that got redirected after decode. (Count)
system.cpu.branchPred.earlyResteers_0::IndirectUncond            0                       # Number of branches that got redirected after decode. (Count)
system.cpu.branchPred.earlyResteers_0::total            0                       # Number of branches that got redirected after decode. (Count)
system.cpu.branchPred.committed_0::NoBranch           14      0.03%      0.03% # Number of branches finally committed  (Count)
system.cpu.branchPred.committed_0::Return         8413     16.79%     16.82% # Number of branches finally committed  (Count)
system.cpu.branchPred.committed_0::CallDirect          194      0.39%     17.21% # Number of branches finally committed  (Count)
system.cpu.branchPred.committed_0::CallIndirect         8222     16.41%     33.62% # Number of branches finally committed  (Count)
system.cpu.branchPred.committed_0::DirectCond        26002     51.90%     85.52% # Number of branches finally committed  (Count)
system.cpu.branchPred.committed_0::DirectUncond         6980     13.93%     99.45% # Number of branches finally committed  (Count)
system.cpu.branchPred.committed_0::IndirectCond            0      0.00%     99.45% # Number of branches finally committed  (Count)
system.cpu.branchPred.committed_0::IndirectUncond          274      0.55%    100.00% # Number of branches finally committed  (Count)
system.cpu.branchPred.committed_0::total        50099                       # Number of branches finally committed  (Count)
system.cpu.branchPred.mispredicted_0::NoBranch           14      0.40%      0.40% # Number of committed branches that were mispredicted. (Count)
system.cpu.branchPred.mispredicted_0::Return           17      0.48%      0.88% # Number of committed branches that were mispredicted. (Count)
system.cpu.branchPred.mispredicted_0::CallDirect           64      1.81%      2.69% # Number of committed branches that were mispredicted. (Count)
system.cpu.branchPred.mispredicted_0::CallIndirect           33      0.93%      3.62% # Number of committed branches that were mispredicted. (Count)
system.cpu.branchPred.mispredicted_0::DirectCond         3307     93.60%     97.23% # Number of committed branches that were mispredicted. (Count)
system.cpu.branchPred.mispredicted_0::DirectUncond           76      2.15%     99.38% # Number of committed branches that were mispredicted. (Count)
system.cpu.branchPred.mispredicted_0::IndirectCond            0      0.00%     99.38% # Number of committed branches that were mispredicted. (Count)
system.cpu.branchPred.mispredicted_0::IndirectUncond           22      0.62%    100.00% # Number of committed branches that were mispredicted. (Count)
system.cpu.branchPred.mispredicted_0::total         3533                       # Number of committed branches that were mispredicted. (Count)
system.cpu.branchPred.mispredictDueToPredictor_0::NoBranch            9      0.28%      0.28% # Number of committed branches that were mispredicted by the predictor. (Count)
system.cpu.branchPred.mispredictDueToPredictor_0::Return            0      0.00%      0.28% # Number of committed branches that were mispredicted by the predictor. (Count)
system.cpu.branchPred.mispredictDueToPredictor_0::CallDirect            0      0.00%      0.28% # Number of committed branches that were mispredicted by the predictor. (Count)
system.cpu.branchPred.mispredictDueToPredictor_0::CallIndirect            0      0.00%      0.28% # Number of committed branches that were mispredicted by the predictor. (Count)
system.cpu.branchPred.mispredictDueToPredictor_0::DirectCond         3165     99.72%    100.00% # Number of committed branches that were mispredicted by the predictor. (Count)
system.cpu.branchPred.mispredictDueToPredictor_0::DirectUncond            0      0.00%    100.00% # Number of committed branches that were mispredicted by the predictor. (Count)
system.cpu.branchPred.mispredictDueToPredictor_0::IndirectCond            0      0.00%    100.00% # Number of committed branches that were mispredicted by the predictor. (Count)
system.cpu.branchPred.mispredictDueToPredictor_0::IndirectUncond            0      0.00%    100.00% # Number of committed branches that were mispredicted by the predictor. (Count)
system.cpu.branchPred.mispredictDueToPredictor_0::total         3174                       # Number of committed branches that were mispredicted by the predictor. (Count)
system.cpu.branchPred.mispredictDueToBTBMiss_0::NoBranch            5      1.39%      1.39% # Number of committed branches that were mispredicted because of a BTB miss. (Count)
system.cpu.branchPred.mispredictDueToBTBMiss_0::Return           17      4.74%      6.13% # Number of committed branches that were mispredicted because of a BTB miss. (Count)
system.cpu.branchPred.mispredictDueToBTBMiss_0::CallDirect           64     17.83%     23.96% # Number of committed branches that were mispredicted because of a BTB miss. (Count)
system.cpu.branchPred.mispredictDueToBTBMiss_0::CallIndirect           33      9.19%     33.15% # Number of committed branches that were mispredicted because of a BTB miss. (Count)
system.cpu.branchPred.mispredictDueToBTBMiss_0::DirectCond          142     39.55%     72.70% # Number of committed branches that were mispredicted because of a BTB miss. (Count)
system.cpu.branchPred.mispredictDueToBTBMiss_0::DirectUncond           76     21.17%     93.87% # Number of committed branches that were mispredicted because of a BTB miss. (Count)
system.cpu.branchPred.mispredictDueToBTBMiss_0::IndirectCond            0      0.00%     93.87% # Number of committed branches that were mispredicted because of a BTB miss. (Count)
system.cpu.branchPred.mispredictDueToBTBMiss_0::IndirectUncond           22      6.13%    100.00% # Number of committed branches that were mispredicted because of a BTB miss. (Count)
system.cpu.branchPred.mispredictDueToBTBMiss_0::total          359                       # Number of committed branches that were mispredicted because of a BTB miss. (Count)
system.cpu.branchPred.targetProvider_0::NoTarget        21221     37.03%     37.03% # The component providing the target for taken branches (Count)
system.cpu.branchPred.targetProvider_0::BTB        19111     33.35%     70.39% # The component providing the target for taken branches (Count)
system.cpu.branchPred.targetProvider_0::RAS         8526     14.88%     85.27% # The component providing the target for taken branches (Count)
system.cpu.branchPred.targetProvider_0::Indirect         8443     14.73%    100.00% # The component providing the target for taken branches (Count)
system.cpu.branchPred.targetProvider_0::total        57301                       # The component providing the target for taken branches (Count)
system.cpu.branchPred.targetWrong_0::NoBranch         2614     74.45%     74.45% # Number of branches where the target was incorrect or not available at prediction time. (Count)
system.cpu.branchPred.targetWrong_0::Return          880     25.06%     99.52% # Number of branches where the target was incorrect or not available at prediction time. (Count)
system.cpu.branchPred.targetWrong_0::CallDirect           17      0.48%    100.00% # Number of branches where the target was incorrect or not available at prediction time. (Count)
system.cpu.branchPred.targetWrong_0::CallIndirect            0      0.00%    100.00% # Number of branches where the target was incorrect or not available at prediction time. (Count)
system.cpu.branchPred.targetWrong_0::DirectCond            0      0.00%    100.00% # Number of branches where the target was incorrect or not available at prediction time. (Count)
system.cpu.branchPred.targetWrong_0::DirectUncond            0      0.00%    100.00% # Number of branches where the target was incorrect or not available at prediction time. (Count)
system.cpu.branchPred.targetWrong_0::IndirectCond            0      0.00%    100.00% # Number of branches where the target was incorrect or not available at prediction time. (Count)
system.cpu.branchPred.targetWrong_0::IndirectUncond            0      0.00%    100.00% # Number of branches where the target was incorrect or not available at prediction time. (Count)
system.cpu.branchPred.targetWrong_0::total         3511                       # Number of branches where the target was incorrect or not available at prediction time. (Count)
system.cpu.branchPred.condPredicted             29043                       # Number of conditional branches predicted (Count)
system.cpu.branchPred.condPredictedTaken         8713                       # Number of conditional branches predicted as taken (Count)
system.cpu.branchPred.condIncorrect              3533                       # Number of conditional branches incorrect (Count)
system.cpu.branchPred.predTakenBTBMiss            199                       # Number of branches predicted taken but missed in BTB (Count)
system.cpu.branchPred.BTBLookups                57301                       # Number of BTB lookups (Count)
system.cpu.branchPred.BTBUpdates                 2581                       # Number of BTB updates (Count)
system.cpu.branchPred.BTBHits                   25798                       # Number of BTB hits (Count)
system.cpu.branchPred.BTBHitRatio            0.450219                       # BTB Hit Ratio (Ratio)
system.cpu.branchPred.BTBMispredicted             287                       # Number BTB mispredictions. No target found or target wrong (Count)
system.cpu.branchPred.indirectLookups            8585                       # Number of indirect predictor lookups. (Count)
system.cpu.branchPred.indirectHits               8443                       # Number of indirect target hits. (Count)
system.cpu.branchPred.indirectMisses              142                       # Number of indirect misses. (Count)
system.cpu.branchPred.indirectMispredicted            0                       # Number of mispredicted indirect branches. (Count)
system.cpu.branchPred.btb.lookups::NoBranch           16      0.03%      0.03% # Number of BTB lookups (Count)
system.cpu.branchPred.btb.lookups::Return         8527     14.88%     14.91% # Number of BTB lookups (Count)
system.cpu.branchPred.btb.lookups::CallDirect          318      0.55%     15.46% # Number of BTB lookups (Count)
system.cpu.branchPred.btb.lookups::CallIndirect         8281     14.45%     29.92% # Number of BTB lookups (Count)
system.cpu.branchPred.btb.lookups::DirectCond        29043     50.68%     80.60% # Number of BTB lookups (Count)
system.cpu.branchPred.btb.lookups::DirectUncond        10812     18.87%     99.47% # Number of BTB lookups (Count)
system.cpu.branchPred.btb.lookups::IndirectCond            0      0.00%     99.47% # Number of BTB lookups (Count)
system.cpu.branchPred.btb.lookups::IndirectUncond          304      0.53%    100.00% # Number of BTB lookups (Count)
system.cpu.branchPred.btb.lookups::total        57301                       # Number of BTB lookups (Count)
system.cpu.branchPred.btb.misses::NoBranch            6      0.02%      0.02% # Number of BTB misses (Count)
system.cpu.branchPred.btb.misses::Return         8527     27.07%     27.09% # Number of BTB misses (Count)
system.cpu.branchPred.btb.misses::CallDirect          165      0.52%     27.61% # Number of BTB misses (Count)
system.cpu.branchPred.btb.misses::CallIndirect         8281     26.29%     53.90% # Number of BTB misses (Count)
system.cpu.branchPred.btb.misses::DirectCond        13963     44.32%     98.22% # Number of BTB misses (Count)
system.cpu.branchPred.btb.misses::DirectUncond          257      0.82%     99.04% # Number of BTB misses (Count)
system.cpu.branchPred.btb.misses::IndirectCond            0      0.00%     99.04% # Number of BTB misses (Count)
system.cpu.branchPred.btb.misses::IndirectUncond          304      0.96%    100.00% # Number of BTB misses (Count)
system.cpu.branchPred.btb.misses::total         31503                       # Number of BTB misses (Count)
system.cpu.branchPred.btb.updates::NoBranch           14      0.54%      0.54% # Number of BTB updates (Count)
system.cpu.branchPred.btb.updates::Return            0      0.00%      0.54% # Number of BTB updates (Count)
system.cpu.branchPred.btb.updates::CallDirect           64      2.48%      3.02% # Number of BTB updates (Count)
system.cpu.branchPred.btb.updates::CallIndirect            0      0.00%      3.02% # Number of BTB updates (Count)
system.cpu.branchPred.btb.updates::DirectCond         2427     94.03%     97.06% # Number of BTB updates (Count)
system.cpu.branchPred.btb.updates::DirectUncond           76      2.94%    100.00% # Number of BTB updates (Count)
system.cpu.branchPred.btb.updates::IndirectCond            0      0.00%    100.00% # Number of BTB updates (Count)
system.cpu.branchPred.btb.updates::IndirectUncond            0      0.00%    100.00% # Number of BTB updates (Count)
system.cpu.branchPred.btb.updates::total         2581                       # Number of BTB updates (Count)
system.cpu.branchPred.btb.mispredict::NoBranch           14      0.54%      0.54% # Number of BTB mispredictions. No target found or target wrong. (Count)
system.cpu.branchPred.btb.mispredict::Return            0      0.00%      0.54% # Number of BTB mispredictions. No target found or target wrong. (Count)
system.cpu.branchPred.btb.mispredict::CallDirect           64      2.48%      3.02% # Number of BTB mispredictions. No target found or target wrong. (Count)
system.cpu.branchPred.btb.mispredict::CallIndirect            0      0.00%      3.02% # Number of BTB mispredictions. No target found or target wrong. (Count)
system.cpu.branchPred.btb.mispredict::DirectCond         2427     94.03%     97.06% # Number of BTB mispredictions. No target found or target wrong. (Count)
system.cpu.branchPred.btb.mispredict::DirectUncond           76      2.94%    100.00% # Number of BTB mispredictions. No target found or target wrong. (Count)
system.cpu.branchPred.btb.mispredict::IndirectCond            0      0.00%    100.00% # Number of BTB mispredictions. No target found or target wrong. (Count)
system.cpu.branchPred.btb.mispredict::IndirectUncond            0      0.00%    100.00% # Number of BTB mispredictions. No target found or target wrong. (Count)
system.cpu.branchPred.btb.mispredict::total         2581                       # Number of BTB mispredictions. No target found or target wrong. (Count)
system.cpu.branchPred.btb.power_state.pwrStateResidencyTicks::UNDEFINED    190244000                       # Cumulative time (in ticks) in various power states (Tick)
system.cpu.branchPred.indirectBranchPred.lookups         8585                       # Number of lookups (Count)
system.cpu.branchPred.indirectBranchPred.hits         8443                       # Number of hits of a tag (Count)
system.cpu.branchPred.indirectBranchPred.misses          142                       # Number of misses (Count)
system.cpu.branchPred.indirectBranchPred.targetRecords           55                       # Number of targets that where recorded/installed in the cache (Count)
system.cpu.branchPred.indirectBranchPred.indirectRecords         8640                       # Number of indirect branches/calls recorded in the indirect hist (Count)
system.cpu.branchPred.indirectBranchPred.speculativeOverflows            6                       # Number of times more than the allowed capacity for speculative branches/calls where in flight and destroy the path history (Count)
system.cpu.branchPred.ras.pushes                 8713                       # Number of times a PC was pushed onto the RAS (Count)
system.cpu.branchPred.ras.pops                   8709                       # Number of times a PC was poped from the RAS (Count)
system.cpu.branchPred.ras.squashes                296                       # Number of times the stack operation was squashed due to wrong speculation. (Count)
system.cpu.branchPred.ras.used                   8413                       # Number of times the RAS is the provider (Count)
system.cpu.branchPred.ras.correct                8396                       # Number of times the RAS is the provider and the prediction is correct (Count)
system.cpu.branchPred.ras.incorrect                17                       # Number of times the RAS is the provider and the prediction is wrong (Count)
system.cpu.commitStats0.numInsts               310294                       # Number of instructions committed (thread level) (Count)
system.cpu.commitStats0.numOps                 312086                       # Number of ops (including micro ops) committed (thread level) (Count)
system.cpu.commitStats0.numInstsNotNOP         310294                       # Number of instructions committed excluding NOPs or prefetches (Count)
system.cpu.commitStats0.numOpsNotNOP           312086                       # Number of Ops (including micro ops) Simulated (Count)
system.cpu.commitStats0.numUserInsts           310294                       # Numbrer of instructions committed in user mode (Count)
system.cpu.commitStats0.numUserOps             312086                       # Number of ops committed in user mode (Count)
system.cpu.commitStats0.ratioUserInsts              1                       # Ratio of instructions committed in user mode (Ratio)
system.cpu.commitStats0.ratioUserOps                1                       # Ratio of ops committed in user mode (Ratio)
system.cpu.commitStats0.cpi                  1.226218                       # CPI: cycles per instruction (thread level) ((Cycle/Count))
system.cpu.commitStats0.ipc                  0.815516                       # IPC: instructions per cycle (thread level) ((Count/Cycle))
system.cpu.commitStats0.numMemRefs              56719                       # Number of memory references committed (Count)
system.cpu.commitStats0.numFpInsts                  0                       # Number of float instructions (Count)
system.cpu.commitStats0.numIntInsts            302642                       # Number of integer instructions (Count)
system.cpu.commitStats0.numLoadInsts            34686                       # Number of load instructions (Count)
system.cpu.commitStats0.numStoreInsts           22033                       # Number of store instructions (Count)
system.cpu.commitStats0.numVecInsts              2816                       # Number of vector instructions (Count)
system.cpu.commitStats0.committedInstType::No_OpClass            4      0.00%      0.00% # Class of committed instruction. (Count)
system.cpu.commitStats0.committedInstType::IntAlu       245083     78.53%     78.53% # Class of committed instruction. (Count)
system.cpu.commitStats0.committedInstType::IntMult         8227      2.64%     81.17% # Class of committed instruction. (Count)
system.cpu.commitStats0.committedInstType::IntDiv            5      0.00%     81.17% # Class of committed instruction. (Count)
system.cpu.commitStats0.committedInstType::FloatAdd            0      0.00%     81.17% # Class of committed instruction. (Count)
system.cpu.commitStats0.committedInstType::FloatCmp            0      0.00%     81.17% # Class of committed instruction. (Count)
system.cpu.commitStats0.committedInstType::FloatCvt            0      0.00%     81.17% # Class of committed instruction. (Count)
system.cpu.commitStats0.committedInstType::FloatMult            0      0.00%     81.17% # Class of committed instruction. (Count)
system.cpu.commitStats0.committedInstType::FloatMultAcc            0      0.00%     81.17% # Class of committed instruction. (Count)
system.cpu.commitStats0.committedInstType::FloatDiv            0      0.00%     81.17% # Class of committed instruction. (Count)
system.cpu.commitStats0.committedInstType::FloatMisc            0      0.00%     81.17% # Class of committed instruction. (Count)
system.cpu.commitStats0.committedInstType::FloatSqrt            0      0.00%     81.17% # Class of committed instruction. (Count)
system.cpu.commitStats0.committedInstType::SimdAdd            0      0.00%     81.17% # Class of committed instruction. (Count)
system.cpu.commitStats0.committedInstType::SimdAddAcc            0      0.00%     81.17% # Class of committed instruction. (Count)
system.cpu.commitStats0.committedInstType::SimdAlu            0      0.00%     81.17% # Class of committed instruction. (Count)
system.cpu.commitStats0.committedInstType::SimdCmp            0      0.00%     81.17% # Class of committed instruction. (Count)
system.cpu.commitStats0.committedInstType::SimdCvt          512      0.16%     81.33% # Class of committed instruction. (Count)
system.cpu.commitStats0.committedInstType::SimdMisc          256      0.08%     81.42% # Class of committed instruction. (Count)
system.cpu.commitStats0.committedInstType::SimdMult            0      0.00%     81.42% # Class of committed instruction. (Count)
system.cpu.commitStats0.committedInstType::SimdMultAcc          512      0.16%     81.58% # Class of committed instruction. (Count)
system.cpu.commitStats0.committedInstType::SimdMatMultAcc            0      0.00%     81.58% # Class of committed instruction. (Count)
system.cpu.commitStats0.committedInstType::SimdShift            0      0.00%     81.58% # Class of committed instruction. (Count)
system.cpu.commitStats0.committedInstType::SimdShiftAcc            0      0.00%     81.58% # Class of committed instruction. (Count)
system.cpu.commitStats0.committedInstType::SimdDiv            0      0.00%     81.58% # Class of committed instruction. (Count)
system.cpu.commitStats0.committedInstType::SimdSqrt            0      0.00%     81.58% # Class of committed instruction. (Count)
system.cpu.commitStats0.committedInstType::SimdFloatAdd            0      0.00%     81.58% # Class of committed instruction. (Count)
system.cpu.commitStats0.committedInstType::SimdFloatAlu            0      0.00%     81.58% # Class of committed instruction. (Count)
system.cpu.commitStats0.committedInstType::SimdFloatCmp            0      0.00%     81.58% # Class of committed instruction. (Count)
system.cpu.commitStats0.committedInstType::SimdFloatCvt            0      0.00%     81.58% # Class of committed instruction. (Count)
system.cpu.commitStats0.committedInstType::SimdFloatDiv            0      0.00%     81.58% # Class of committed instruction. (Count)
system.cpu.commitStats0.committedInstType::SimdFloatMisc            0      0.00%     81.58% # Class of committed instruction. (Count)
system.cpu.commitStats0.committedInstType::SimdFloatMult            0      0.00%     81.58% # Class of committed instruction. (Count)
system.cpu.commitStats0.committedInstType::SimdFloatMultAcc            0      0.00%     81.58% # Class of committed instruction. (Count)
system.cpu.commitStats0.committedInstType::SimdFloatMatMultAcc            0      0.00%     81.58% # Class of committed instruction. (Count)
system.cpu.commitStats0.committedInstType::SimdFloatSqrt            0      0.00%     81.58% # Class of committed instruction. (Count)
system.cpu.commitStats0.committedInstType::SimdReduceAdd            0      0.00%     81.58% # Class of committed instruction. (Count)
system.cpu.commitStats0.committedInstType::SimdReduceAlu            0      0.00%     81.58% # Class of committed instruction. (Count)
system.cpu.commitStats0.committedInstType::SimdReduceCmp            0      0.00%     81.58% # Class of committed instruction. (Count)
system.cpu.commitStats0.committedInstType::SimdFloatReduceAdd            0      0.00%     81.58% # Class of committed instruction. (Count)
system.cpu.commitStats0.committedInstType::SimdFloatReduceCmp            0      0.00%     81.58% # Class of committed instruction. (Count)
system.cpu.commitStats0.committedInstType::SimdAes            0      0.00%     81.58% # Class of committed instruction. (Count)
system.cpu.commitStats0.committedInstType::SimdAesMix            0      0.00%     81.58% # Class of committed instruction. (Count)
system.cpu.commitStats0.committedInstType::SimdSha1Hash            0      0.00%     81.58% # Class of committed instruction. (Count)
system.cpu.commitStats0.committedInstType::SimdSha1Hash2            0      0.00%     81.58% # Class of committed instruction. (Count)
system.cpu.commitStats0.committedInstType::SimdSha256Hash            0      0.00%     81.58% # Class of committed instruction. (Count)
system.cpu.commitStats0.committedInstType::SimdSha256Hash2            0      0.00%     81.58% # Class of committed instruction. (Count)
system.cpu.commitStats0.committedInstType::SimdShaSigma2            0      0.00%     81.58% # Class of committed instruction. (Count)
system.cpu.commitStats0.committedInstType::SimdShaSigma3            0      0.00%     81.58% # Class of committed instruction. (Count)
system.cpu.commitStats0.committedInstType::SimdSha3            0      0.00%     81.58% # Class of committed instruction. (Count)
system.cpu.commitStats0.committedInstType::SimdSm4e            0      0.00%     81.58% # Class of committed instruction. (Count)
system.cpu.commitStats0.committedInstType::SimdCrc            0      0.00%     81.58% # Class of committed instruction. (Count)
system.cpu.commitStats0.committedInstType::SimdPredAlu            0      0.00%     81.58% # Class of committed instruction. (Count)
system.cpu.commitStats0.committedInstType::SimdDotProd            0      0.00%     81.58% # Class of committed instruction. (Count)
system.cpu.commitStats0.committedInstType::Matrix            0      0.00%     81.58% # Class of committed instruction. (Count)
system.cpu.commitStats0.committedInstType::MatrixMov            0      0.00%     81.58% # Class of committed instruction. (Count)
system.cpu.commitStats0.committedInstType::MatrixOP            0      0.00%     81.58% # Class of committed instruction. (Count)
system.cpu.commitStats0.committedInstType::MemRead        34174     10.95%     92.53% # Class of committed instruction. (Count)
system.cpu.commitStats0.committedInstType::MemWrite        21777      6.98%     99.51% # Class of committed instruction. (Count)
system.cpu.commitStats0.committedInstType::FloatMemRead            0      0.00%     99.51% # Class of committed instruction. (Count)
system.cpu.commitStats0.committedInstType::FloatMemWrite            0      0.00%     99.51% # Class of committed instruction. (Count)
system.cpu.commitStats0.committedInstType::InstPrefetch            0      0.00%     99.51% # Class of committed instruction. (Count)
system.cpu.commitStats0.committedInstType::SimdUnitStrideLoad          512      0.16%     99.67% # Class of committed instruction. (Count)
system.cpu.commitStats0.committedInstType::SimdUnitStrideStore          256      0.08%     99.75% # Class of committed instruction. (Count)
system.cpu.commitStats0.committedInstType::SimdUnitStrideMaskLoad            0      0.00%     99.75% # Class of committed instruction. (Count)
system.cpu.commitStats0.committedInstType::SimdUnitStrideMaskStore            0      0.00%     99.75% # Class of committed instruction. (Count)
system.cpu.commitStats0.committedInstType::SimdStridedLoad            0      0.00%     99.75% # Class of committed instruction. (Count)
system.cpu.commitStats0.committedInstType::SimdStridedStore            0      0.00%     99.75% # Class of committed instruction. (Count)
system.cpu.commitStats0.committedInstType::SimdIndexedLoad            0      0.00%     99.75% # Class of committed instruction. (Count)
system.cpu.commitStats0.committedInstType::SimdIndexedStore            0      0.00%     99.75% # Class of committed instruction. (Count)
system.cpu.commitStats0.committedInstType::SimdWholeRegisterLoad            0      0.00%     99.75% # Class of committed instruction. (Count)
system.cpu.commitStats0.committedInstType::SimdWholeRegisterStore            0      0.00%     99.75% # Class of committed instruction. (Count)
system.cpu.commitStats0.committedInstType::SimdUnitStrideFaultOnlyFirstLoad            0      0.00%     99.75% # Class of committed instruction. (Count)
system.cpu.commitStats0.committedInstType::SimdUnitStrideSegmentedLoad            0      0.00%     99.75% # Class of committed instruction. (Count)
system.cpu.commitStats0.committedInstType::SimdUnitStrideSegmentedStore            0      0.00%     99.75% # Class of committed instruction. (Count)
system.cpu.commitStats0.committedInstType::SimdUnitStrideSegmentedFaultOnlyFirstLoad            0      0.00%     99.75% # Class of committed instruction. (Count)
system.cpu.commitStats0.committedInstType::SimdStrideSegmentedLoad            0      0.00%     99.75% # Class of committed instruction. (Count)
system.cpu.commitStats0.committedInstType::SimdStrideSegmentedStore            0      0.00%     99.75% # Class of committed instruction. (Count)
system.cpu.commitStats0.committedInstType::SimdExt          512      0.16%     99.92% # Class of committed instruction. (Count)
system.cpu.commitStats0.committedInstType::SimdFloatExt            0      0.00%     99.92% # Class of committed instruction. (Count)
system.cpu.commitStats0.committedInstType::SimdConfig          256      0.08%    100.00% # Class of committed instruction. (Count)
system.cpu.commitStats0.committedInstType::SimdBf16Add            0      0.00%    100.00% # Class of committed instruction. (Count)
system.cpu.commitStats0.committedInstType::SimdBf16Cmp            0      0.00%    100.00% # Class of committed instruction. (Count)
system.cpu.commitStats0.committedInstType::SimdBf16Cvt            0      0.00%    100.00% # Class of committed instruction. (Count)
system.cpu.commitStats0.committedInstType::SimdBf16DotProd            0      0.00%    100.00% # Class of committed instruction. (Count)
system.cpu.commitStats0.committedInstType::SimdBf16MatMultAcc            0      0.00%    100.00% # Class of committed instruction. (Count)
system.cpu.commitStats0.committedInstType::SimdBf16Mult            0      0.00%    100.00% # Class of committed instruction. (Count)
system.cpu.commitStats0.committedInstType::SimdBf16MultAcc            0      0.00%    100.00% # Class of committed instruction. (Count)
system.cpu.commitStats0.committedInstType::Bf16Cvt            0      0.00%    100.00% # Class of committed instruction. (Count)
system.cpu.commitStats0.committedInstType::System            0      0.00%    100.00% # Class of committed instruction. (Count)
system.cpu.commitStats0.committedInstType::total       312086                       # Class of committed instruction. (Count)
system.cpu.commitStats0.committedControl::IsControl        50065                       # Class of control type instructions committed (Count)
system.cpu.commitStats0.committedControl::IsDirectControl        33162                       # Class of control type instructions committed (Count)
system.cpu.commitStats0.committedControl::IsIndirectControl        16903                       # Class of control type instructions committed (Count)
system.cpu.commitStats0.committedControl::IsCondControl        25996                       # Class of control type instructions committed (Count)
system.cpu.commitStats0.committedControl::IsUncondControl        24069                       # Class of control type instructions committed (Count)
system.cpu.commitStats0.committedControl::IsCall         8410                       # Class of control type instructions committed (Count)
system.cpu.commitStats0.committedControl::IsReturn         8412                       # Class of control type instructions committed (Count)
system.cpu.commitStats0.functionCalls            8410                       # Number of function calls committed (Count)
system.cpu.commitStats0.numCallsReturns         16822                       # Number of function calls and returns committed (Count)
system.cpu.dcache.demandHits::cpu.data          56110                       # number of demand (read+write) hits (Count)
system.cpu.dcache.demandHits::total             56110                       # number of demand (read+write) hits (Count)
system.cpu.dcache.overallHits::cpu.data         56110                       # number of overall hits (Count)
system.cpu.dcache.overallHits::total            56110                       # number of overall hits (Count)
system.cpu.dcache.demandMisses::cpu.data          876                       # number of demand (read+write) misses (Count)
system.cpu.dcache.demandMisses::total             876                       # number of demand (read+write) misses (Count)
system.cpu.dcache.overallMisses::cpu.data          876                       # number of overall misses (Count)
system.cpu.dcache.overallMisses::total            876                       # number of overall misses (Count)
system.cpu.dcache.demandMissLatency::cpu.data     37826000                       # number of demand (read+write) miss ticks (Tick)
system.cpu.dcache.demandMissLatency::total     37826000                       # number of demand (read+write) miss ticks (Tick)
system.cpu.dcache.overallMissLatency::cpu.data     37826000                       # number of overall miss ticks (Tick)
system.cpu.dcache.overallMissLatency::total     37826000                       # number of overall miss ticks (Tick)
system.cpu.dcache.demandAccesses::cpu.data        56986                       # number of demand (read+write) accesses (Count)
system.cpu.dcache.demandAccesses::total         56986                       # number of demand (read+write) accesses (Count)
system.cpu.dcache.overallAccesses::cpu.data        56986                       # number of overall (read+write) accesses (Count)
system.cpu.dcache.overallAccesses::total        56986                       # number of overall (read+write) accesses (Count)
system.cpu.dcache.demandMissRate::cpu.data     0.015372                       # miss rate for demand accesses (Ratio)
system.cpu.dcache.demandMissRate::total      0.015372                       # miss rate for demand accesses (Ratio)
system.cpu.dcache.overallMissRate::cpu.data     0.015372                       # miss rate for overall accesses (Ratio)
system.cpu.dcache.overallMissRate::total     0.015372                       # miss rate for overall accesses (Ratio)
system.cpu.dcache.demandAvgMissLatency::cpu.data 43180.365297                       # average overall miss latency in ticks ((Tick/Count))
system.cpu.dcache.demandAvgMissLatency::total 43180.365297                       # average overall miss latency in ticks ((Tick/Count))
system.cpu.dcache.overallAvgMissLatency::cpu.data 43180.365297                       # average overall miss latency ((Tick/Count))
system.cpu.dcache.overallAvgMissLatency::total 43180.365297                       # average overall miss latency ((Tick/Count))
system.cpu.dcache.blockedCycles::no_mshrs            0                       # number of cycles access was blocked (Cycle)
system.cpu.dcache.blockedCycles::no_wbuffers            0                       # number of cycles access was blocked (Cycle)
system.cpu.dcache.blockedCycles::no_targets            0                       # number of cycles access was blocked (Cycle)
system.cpu.dcache.blockedCauses::no_mshrs            0                       # number of times access was blocked (Count)
system.cpu.dcache.blockedCauses::no_wbuffers            0                       # number of times access was blocked (Count)
system.cpu.dcache.blockedCauses::no_targets            0                       # number of times access was blocked (Count)
system.cpu.dcache.avgBlocked::no_mshrs            nan                       # average number of cycles each access was blocked ((Cycle/Count))
system.cpu.dcache.avgBlocked::no_wbuffers          nan                       # average number of cycles each access was blocked ((Cycle/Count))
system.cpu.dcache.avgBlocked::no_targets          nan                       # average number of cycles each access was blocked ((Cycle/Count))
system.cpu.dcache.demandMshrHits::cpu.data          295                       # number of demand (read+write) MSHR hits (Count)
system.cpu.dcache.demandMshrHits::total           295                       # number of demand (read+write) MSHR hits (Count)
system.cpu.dcache.overallMshrHits::cpu.data          295                       # number of overall MSHR hits (Count)
system.cpu.dcache.overallMshrHits::total          295                       # number of overall MSHR hits (Count)
system.cpu.dcache.demandMshrMisses::cpu.data          581                       # number of demand (read+write) MSHR misses (Count)
system.cpu.dcache.demandMshrMisses::total          581                       # number of demand (read+write) MSHR misses (Count)
system.cpu.dcache.overallMshrMisses::cpu.data          581                       # number of overall MSHR misses (Count)
system.cpu.dcache.overallMshrMisses::total          581                       # number of overall MSHR misses (Count)
system.cpu.dcache.demandMshrMissLatency::cpu.data     27345000                       # number of demand (read+write) MSHR miss ticks (Tick)
system.cpu.dcache.demandMshrMissLatency::total     27345000                       # number of demand (read+write) MSHR miss ticks (Tick)
system.cpu.dcache.overallMshrMissLatency::cpu.data     27345000                       # number of overall MSHR miss ticks (Tick)
system.cpu.dcache.overallMshrMissLatency::total     27345000                       # number of overall MSHR miss ticks (Tick)
system.cpu.dcache.demandMshrMissRate::cpu.data     0.010195                       # mshr miss ratio for demand accesses (Ratio)
system.cpu.dcache.demandMshrMissRate::total     0.010195                       # mshr miss ratio for demand accesses (Ratio)
system.cpu.dcache.overallMshrMissRate::cpu.data     0.010195                       # mshr miss ratio for overall accesses (Ratio)
system.cpu.dcache.overallMshrMissRate::total     0.010195                       # mshr miss ratio for overall accesses (Ratio)
system.cpu.dcache.demandAvgMshrMissLatency::cpu.data 47065.404475                       # average overall mshr miss latency ((Tick/Count))
system.cpu.dcache.demandAvgMshrMissLatency::total 47065.404475                       # average overall mshr miss latency ((Tick/Count))
system.cpu.dcache.overallAvgMshrMissLatency::cpu.data 47065.404475                       # average overall mshr miss latency ((Tick/Count))
system.cpu.dcache.overallAvgMshrMissLatency::total 47065.404475                       # average overall mshr miss latency ((Tick/Count))
system.cpu.dcache.replacements                      0                       # number of replacements (Count)
system.cpu.dcache.ReadReq.hits::cpu.data        34929                       # number of ReadReq hits (Count)
system.cpu.dcache.ReadReq.hits::total           34929                       # number of ReadReq hits (Count)
system.cpu.dcache.ReadReq.misses::cpu.data           24                       # number of ReadReq misses (Count)
system.cpu.dcache.ReadReq.misses::total            24                       # number of ReadReq misses (Count)
system.cpu.dcache.ReadReq.missLatency::cpu.data      1568000                       # number of ReadReq miss ticks (Tick)
system.cpu.dcache.ReadReq.missLatency::total      1568000                       # number of ReadReq miss ticks (Tick)
system.cpu.dcache.ReadReq.accesses::cpu.data        34953                       # number of ReadReq accesses(hits+misses) (Count)
system.cpu.dcache.ReadReq.accesses::total        34953                       # number of ReadReq accesses(hits+misses) (Count)
system.cpu.dcache.ReadReq.missRate::cpu.data     0.000687                       # miss rate for ReadReq accesses (Ratio)
system.cpu.dcache.ReadReq.missRate::total     0.000687                       # miss rate for ReadReq accesses (Ratio)
system.cpu.dcache.ReadReq.avgMissLatency::cpu.data 65333.333333                       # average ReadReq miss latency ((Tick/Count))
system.cpu.dcache.ReadReq.avgMissLatency::total 65333.333333                       # average ReadReq miss latency ((Tick/Count))
system.cpu.dcache.ReadReq.mshrHits::cpu.data            1                       # number of ReadReq MSHR hits (Count)
system.cpu.dcache.ReadReq.mshrHits::total            1                       # number of ReadReq MSHR hits (Count)
system.cpu.dcache.ReadReq.mshrMisses::cpu.data           23                       # number of ReadReq MSHR misses (Count)
system.cpu.dcache.ReadReq.mshrMisses::total           23                       # number of ReadReq MSHR misses (Count)
system.cpu.dcache.ReadReq.mshrMissLatency::cpu.data      1519000                       # number of ReadReq MSHR miss ticks (Tick)
system.cpu.dcache.ReadReq.mshrMissLatency::total      1519000                       # number of ReadReq MSHR miss ticks (Tick)
system.cpu.dcache.ReadReq.mshrMissRate::cpu.data     0.000658                       # mshr miss rate for ReadReq accesses (Ratio)
system.cpu.dcache.ReadReq.mshrMissRate::total     0.000658                       # mshr miss rate for ReadReq accesses (Ratio)
system.cpu.dcache.ReadReq.avgMshrMissLatency::cpu.data 66043.478261                       # average ReadReq mshr miss latency ((Tick/Count))
system.cpu.dcache.ReadReq.avgMshrMissLatency::total 66043.478261                       # average ReadReq mshr miss latency ((Tick/Count))
system.cpu.dcache.WriteReq.hits::cpu.data        21181                       # number of WriteReq hits (Count)
system.cpu.dcache.WriteReq.hits::total          21181                       # number of WriteReq hits (Count)
system.cpu.dcache.WriteReq.misses::cpu.data          852                       # number of WriteReq misses (Count)
system.cpu.dcache.WriteReq.misses::total          852                       # number of WriteReq misses (Count)
system.cpu.dcache.WriteReq.missLatency::cpu.data     36258000                       # number of WriteReq miss ticks (Tick)
system.cpu.dcache.WriteReq.missLatency::total     36258000                       # number of WriteReq miss ticks (Tick)
system.cpu.dcache.WriteReq.accesses::cpu.data        22033                       # number of WriteReq accesses(hits+misses) (Count)
system.cpu.dcache.WriteReq.accesses::total        22033                       # number of WriteReq accesses(hits+misses) (Count)
system.cpu.dcache.WriteReq.missRate::cpu.data     0.038669                       # miss rate for WriteReq accesses (Ratio)
system.cpu.dcache.WriteReq.missRate::total     0.038669                       # miss rate for WriteReq accesses (Ratio)
system.cpu.dcache.WriteReq.avgMissLatency::cpu.data 42556.338028                       # average WriteReq miss latency ((Tick/Count))
system.cpu.dcache.WriteReq.avgMissLatency::total 42556.338028                       # average WriteReq miss latency ((Tick/Count))
system.cpu.dcache.WriteReq.mshrHits::cpu.data          294                       # number of WriteReq MSHR hits (Count)
system.cpu.dcache.WriteReq.mshrHits::total          294                       # number of WriteReq MSHR hits (Count)
system.cpu.dcache.WriteReq.mshrMisses::cpu.data          558                       # number of WriteReq MSHR misses (Count)
system.cpu.dcache.WriteReq.mshrMisses::total          558                       # number of WriteReq MSHR misses (Count)
system.cpu.dcache.WriteReq.mshrMissLatency::cpu.data     25826000                       # number of WriteReq MSHR miss ticks (Tick)
system.cpu.dcache.WriteReq.mshrMissLatency::total     25826000                       # number of WriteReq MSHR miss ticks (Tick)
system.cpu.dcache.WriteReq.mshrMissRate::cpu.data     0.025326                       # mshr miss rate for WriteReq accesses (Ratio)
system.cpu.dcache.WriteReq.mshrMissRate::total     0.025326                       # mshr miss rate for WriteReq accesses (Ratio)
system.cpu.dcache.WriteReq.avgMshrMissLatency::cpu.data 46283.154122                       # average WriteReq mshr miss latency ((Tick/Count))
system.cpu.dcache.WriteReq.avgMshrMissLatency::total 46283.154122                       # average WriteReq mshr miss latency ((Tick/Count))
system.cpu.dcache.power_state.pwrStateResidencyTicks::UNDEFINED    190244000                       # Cumulative time (in ticks) in various power states (Tick)
system.cpu.dcache.tags.tagsInUse           316.179450                       # Average ticks per tags in use ((Tick/Count))
system.cpu.dcache.tags.totalRefs                56691                       # Total number of references to valid blocks. (Count)
system.cpu.dcache.tags.sampledRefs                581                       # Sample count of references to valid blocks. (Count)
system.cpu.dcache.tags.avgRefs              97.574871                       # Average number of references to valid blocks. ((Count/Count))
system.cpu.dcache.tags.warmupTick              202000                       # The tick when the warmup percentage was hit. (Tick)
system.cpu.dcache.tags.occupancies::cpu.data   316.179450                       # Average occupied blocks per tick, per requestor ((Count/Tick))
system.cpu.dcache.tags.avgOccs::cpu.data     0.308769                       # Average percentage of cache occupancy ((Ratio/Tick))
system.cpu.dcache.tags.avgOccs::total        0.308769                       # Average percentage of cache occupancy ((Ratio/Tick))
system.cpu.dcache.tags.occupanciesTaskId::1024          581                       # Occupied blocks per task id (Count)
system.cpu.dcache.tags.ageTaskId_1024::0            5                       # Occupied blocks per task id, per block age (Count)
system.cpu.dcache.tags.ageTaskId_1024::1          276                       # Occupied blocks per task id, per block age (Count)
system.cpu.dcache.tags.ageTaskId_1024::2          300                       # Occupied blocks per task id, per block age (Count)
system.cpu.dcache.tags.ratioOccsTaskId::1024     0.567383                       # Ratio of occupied blocks and all blocks, per task id (Ratio)
system.cpu.dcache.tags.tagAccesses             114553                       # Number of tag accesses (Count)
system.cpu.dcache.tags.dataAccesses            114553                       # Number of data accesses (Count)
system.cpu.dcache.tags.power_state.pwrStateResidencyTicks::UNDEFINED    190244000                       # Cumulative time (in ticks) in various power states (Tick)
system.cpu.dtb_walker_cache.blockedCycles::no_mshrs            0                       # number of cycles access was blocked (Cycle)
system.cpu.dtb_walker_cache.blockedCycles::no_wbuffers            0                       # number of cycles access was blocked (Cycle)
system.cpu.dtb_walker_cache.blockedCycles::no_targets            0                       # number of cycles access was blocked (Cycle)
system.cpu.dtb_walker_cache.blockedCauses::no_mshrs            0                       # number of times access was blocked (Count)
system.cpu.dtb_walker_cache.blockedCauses::no_wbuffers            0                       # number of times access was blocked (Count)
system.cpu.dtb_walker_cache.blockedCauses::no_targets            0                       # number of times access was blocked (Count)
system.cpu.dtb_walker_cache.avgBlocked::no_mshrs          nan                       # average number of cycles each access was blocked ((Cycle/Count))
system.cpu.dtb_walker_cache.avgBlocked::no_wbuffers          nan                       # average number of cycles each access was blocked ((Cycle/Count))
system.cpu.dtb_walker_cache.avgBlocked::no_targets          nan                       # average number of cycles each access was blocked ((Cycle/Count))
system.cpu.dtb_walker_cache.replacements            0                       # number of replacements (Count)
system.cpu.dtb_walker_cache.power_state.pwrStateResidencyTicks::UNDEFINED    190244000                       # Cumulative time (in ticks) in various power states (Tick)
system.cpu.dtb_walker_cache.tags.tagsInUse            0                       # Average ticks per tags in use ((Tick/Count))
system.cpu.dtb_walker_cache.tags.totalRefs            0                       # Total number of references to valid blocks. (Count)
system.cpu.dtb_walker_cache.tags.sampledRefs            0                       # Sample count of references to valid blocks. (Count)
system.cpu.dtb_walker_cache.tags.avgRefs          nan                       # Average number of references to valid blocks. ((Count/Count))
system.cpu.dtb_walker_cache.tags.warmupTick            0                       # The tick when the warmup percentage was hit. (Tick)
system.cpu.dtb_walker_cache.tags.tagAccesses            0                       # Number of tag accesses (Count)
system.cpu.dtb_walker_cache.tags.dataAccesses            0                       # Number of data accesses (Count)
system.cpu.dtb_walker_cache.tags.power_state.pwrStateResidencyTicks::UNDEFINED    190244000                       # Cumulative time (in ticks) in various power states (Tick)
system.cpu.executeStats0.numInsts              310294                       # Number of executed instructions (Count)
system.cpu.executeStats0.numNop                     0                       # Number of nop insts executed (Count)
system.cpu.executeStats0.numBranches            50065                       # Number of branches executed (Count)
system.cpu.executeStats0.numLoadInsts           34686                       # Number of load instructions executed (Count)
system.cpu.executeStats0.numStoreInsts          22033                       # Number of stores executed (Count)
system.cpu.executeStats0.instRate            0.815516                       # Inst execution rate ((Count/Cycle))
system.cpu.executeStats0.numFpAluAccesses            1                       # Number of float alu accesses (Count)
system.cpu.executeStats0.numFpRegWrites             0                       # Number of times the floating registers were written (Count)
system.cpu.executeStats0.numIntAluAccesses       305610                       # Number of integer alu accesses (Count)
system.cpu.executeStats0.numIntRegReads        382791                       # Number of times the integer registers were read (Count)
system.cpu.executeStats0.numIntRegWrites       246222                       # Number of times the integer registers were written (Count)
system.cpu.executeStats0.numMemRefs             56719                       # Number of memory refs (Count)
system.cpu.executeStats0.numVecAluAccesses         2849                       # Number of vector alu accesses (Count)
system.cpu.executeStats0.numVecRegReads          2305                       # Number of times the vector registers were read (Count)
system.cpu.executeStats0.numVecRegWrites         2304                       # Number of times the vector registers were written (Count)
system.cpu.executeStats0.numDiscardedOps         4949                       # Number of ops (including micro ops) which were discarded before commit (Count)
system.cpu.fetch2.totalInstructions            328483                       # Total number of instructions successfully decoded (Count)
system.cpu.fetch2.intInstructions              257657                       # Number of integer instructions successfully decoded (Count)
system.cpu.fetch2.fpInstructions                    0                       # Number of floating point instructions successfully decoded (Count)
system.cpu.fetch2.vecInstructions                 686                       # Number of SIMD instructions successfully decoded (Count)
system.cpu.fetch2.loadInstructions              36096                       # Number of memory load instructions successfully decoded (Count)
system.cpu.fetch2.storeInstructions             23374                       # Number of memory store instructions successfully decoded (Count)
system.cpu.fetch2.amoInstructions                   0                       # Number of memory atomic instructions successfully decoded (Count)
system.cpu.fetchStats0.numInsts                328483                       # Number of instructions fetched (thread level) (Count)
system.cpu.fetchStats0.numOps                       0                       # Number of ops (including micro ops) fetched (thread level) (Count)
system.cpu.fetchStats0.fetchRate             0.863320                       # Number of inst fetches per cycle ((Count/Cycle))
system.cpu.fetchStats0.numBranches              57301                       # Number of branches fetched (Count)
system.cpu.fetchStats0.branchRate            0.150599                       # Number of branch fetches per cycle (Ratio)
system.cpu.fetchStats0.numFetchSuspends             0                       # Number of times Execute suspended instruction fetching (Count)
system.cpu.icache.demandHits::cpu.inst          96412                       # number of demand (read+write) hits (Count)
system.cpu.icache.demandHits::total             96412                       # number of demand (read+write) hits (Count)
system.cpu.icache.overallHits::cpu.inst         96412                       # number of overall hits (Count)
system.cpu.icache.overallHits::total            96412                       # number of overall hits (Count)
system.cpu.icache.demandMisses::cpu.inst          251                       # number of demand (read+write) misses (Count)
system.cpu.icache.demandMisses::total             251                       # number of demand (read+write) misses (Count)
system.cpu.icache.overallMisses::cpu.inst          251                       # number of overall misses (Count)
system.cpu.icache.overallMisses::total            251                       # number of overall misses (Count)
system.cpu.icache.demandMissLatency::cpu.inst     12683000                       # number of demand (read+write) miss ticks (Tick)
system.cpu.icache.demandMissLatency::total     12683000                       # number of demand (read+write) miss ticks (Tick)
system.cpu.icache.overallMissLatency::cpu.inst     12683000                       # number of overall miss ticks (Tick)
system.cpu.icache.overallMissLatency::total     12683000                       # number of overall miss ticks (Tick)
system.cpu.icache.demandAccesses::cpu.inst        96663                       # number of demand (read+write) accesses (Count)
system.cpu.icache.demandAccesses::total         96663                       # number of demand (read+write) accesses (Count)
system.cpu.icache.overallAccesses::cpu.inst        96663                       # number of overall (read+write) accesses (Count)
system.cpu.icache.overallAccesses::total        96663                       # number of overall (read+write) accesses (Count)
system.cpu.icache.demandMissRate::cpu.inst     0.002597                       # miss rate for demand accesses (Ratio)
system.cpu.icache.demandMissRate::total      0.002597                       # miss rate for demand accesses (Ratio)
system.cpu.icache.overallMissRate::cpu.inst     0.002597                       # miss rate for overall accesses (Ratio)
system.cpu.icache.overallMissRate::total     0.002597                       # miss rate for overall accesses (Ratio)
system.cpu.icache.demandAvgMissLatency::cpu.inst 50529.880478                       # average overall miss latency in ticks ((Tick/Count))
system.cpu.icache.demandAvgMissLatency::total 50529.880478                       # average overall miss latency in ticks ((Tick/Count))
system.cpu.icache.overallAvgMissLatency::cpu.inst 50529.880478                       # average overall miss latency ((Tick/Count))
system.cpu.icache.overallAvgMissLatency::total 50529.880478                       # average overall miss latency ((Tick/Count))
system.cpu.icache.blockedCycles::no_mshrs            0                       # number of cycles access was blocked (Cycle)
system.cpu.icache.blockedCycles::no_wbuffers            0                       # number of cycles access was blocked (Cycle)
system.cpu.icache.blockedCycles::no_targets            0                       # number of cycles access was blocked (Cycle)
system.cpu.icache.blockedCauses::no_mshrs            0                       # number of times access was blocked (Count)
system.cpu.icache.blockedCauses::no_wbuffers            0                       # number of times access was blocked (Count)
system.cpu.icache.blockedCauses::no_targets            0                       # number of times access was blocked (Count)
system.cpu.icache.avgBlocked::no_mshrs            nan                       # average number of cycles each access was blocked ((Cycle/Count))
system.cpu.icache.avgBlocked::no_wbuffers          nan                       # average number of cycles each access was blocked ((Cycle/Count))
system.cpu.icache.avgBlocked::no_targets          nan                       # average number of cycles each access was blocked ((Cycle/Count))
system.cpu.icache.writebacks::writebacks           25                       # number of writebacks (Count)
system.cpu.icache.writebacks::total                25                       # number of writebacks (Count)
system.cpu.icache.demandMshrMisses::cpu.inst          251                       # number of demand (read+write) MSHR misses (Count)
system.cpu.icache.demandMshrMisses::total          251                       # number of demand (read+write) MSHR misses (Count)
system.cpu.icache.overallMshrMisses::cpu.inst          251                       # number of overall MSHR misses (Count)
system.cpu.icache.overallMshrMisses::total          251                       # number of overall MSHR misses (Count)
system.cpu.icache.demandMshrMissLatency::cpu.inst     12433000                       # number of demand (read+write) MSHR miss ticks (Tick)
system.cpu.icache.demandMshrMissLatency::total     12433000                       # number of demand (read+write) MSHR miss ticks (Tick)
system.cpu.icache.overallMshrMissLatency::cpu.inst     12433000                       # number of overall MSHR miss ticks (Tick)
system.cpu.icache.overallMshrMissLatency::total     12433000                       # number of overall MSHR miss ticks (Tick)
[...]
system.mem_ctrls.dram.bwRead::cpu.inst       84438931                       # Total read bandwidth from this memory ((Byte/Second))
system.mem_ctrls.dram.bwRead::cpu.data      152730178                       # Total read bandwidth from this memory ((Byte/Second))
system.mem_ctrls.dram.bwRead::total         237169109                       # Total read bandwidth from this memory ((Byte/Second))
system.mem_ctrls.dram.bwInstRead::cpu.inst     84438931                       # Instruction read bandwidth from this memory ((Byte/Second))
system.mem_ctrls.dram.bwInstRead::total      84438931                       # Instruction read bandwidth from this memory ((Byte/Second))
system.mem_ctrls.dram.bwTotal::cpu.inst      84438931                       # Total bandwidth to/from this memory ((Byte/Second))
system.mem_ctrls.dram.bwTotal::cpu.data     152730178                       # Total bandwidth to/from this memory ((Byte/Second))
system.mem_ctrls.dram.bwTotal::total        237169109                       # Total bandwidth to/from this memory ((Byte/Second))
system.mem_ctrls.dram.readBursts                  688                       # Number of DRAM read bursts (Count)
system.mem_ctrls.dram.writeBursts                   0                       # Number of DRAM write bursts (Count)
system.mem_ctrls.dram.perBankRdBursts::0          119                       # Per bank write bursts (Count)
system.mem_ctrls.dram.perBankRdBursts::1           62                       # Per bank write bursts (Count)
system.mem_ctrls.dram.perBankRdBursts::2           33                       # Per bank write bursts (Count)
system.mem_ctrls.dram.perBankRdBursts::3           10                       # Per bank write bursts (Count)
system.mem_ctrls.dram.perBankRdBursts::4           20                       # Per bank write bursts (Count)
system.mem_ctrls.dram.perBankRdBursts::5           52                       # Per bank write bursts (Count)
system.mem_ctrls.dram.perBankRdBursts::6          128                       # Per bank write bursts (Count)
system.mem_ctrls.dram.perBankRdBursts::7           69                       # Per bank write bursts (Count)
system.mem_ctrls.dram.perBankRdBursts::8           67                       # Per bank write bursts (Count)
system.mem_ctrls.dram.perBankRdBursts::9          128                       # Per bank write bursts (Count)
system.mem_ctrls.dram.perBankRdBursts::10            0                       # Per bank write bursts (Count)
system.mem_ctrls.dram.perBankRdBursts::11            0                       # Per bank write bursts (Count)
system.mem_ctrls.dram.perBankRdBursts::12            0                       # Per bank write bursts (Count)
system.mem_ctrls.dram.perBankRdBursts::13            0                       # Per bank write bursts (Count)
system.mem_ctrls.dram.perBankRdBursts::14            0                       # Per bank write bursts (Count)
system.mem_ctrls.dram.perBankRdBursts::15            0                       # Per bank write bursts (Count)
system.mem_ctrls.dram.perBankWrBursts::0            0                       # Per bank write bursts (Count)
system.mem_ctrls.dram.perBankWrBursts::1            0                       # Per bank write bursts (Count)
system.mem_ctrls.dram.perBankWrBursts::2            0                       # Per bank write bursts (Count)
system.mem_ctrls.dram.perBankWrBursts::3            0                       # Per bank write bursts (Count)
system.mem_ctrls.dram.perBankWrBursts::4            0                       # Per bank write bursts (Count)
system.mem_ctrls.dram.perBankWrBursts::5            0                       # Per bank write bursts (Count)
system.mem_ctrls.dram.perBankWrBursts::6            0                       # Per bank write bursts (Count)
system.mem_ctrls.dram.perBankWrBursts::7            0                       # Per bank write bursts (Count)
system.mem_ctrls.dram.perBankWrBursts::8            0                       # Per bank write bursts (Count)
system.mem_ctrls.dram.perBankWrBursts::9            0                       # Per bank write bursts (Count)
system.mem_ctrls.dram.perBankWrBursts::10            0                       # Per bank write bursts (Count)
system.mem_ctrls.dram.perBankWrBursts::11            0                       # Per bank write bursts (Count)
system.mem_ctrls.dram.perBankWrBursts::12            0                       # Per bank write bursts (Count)
system.mem_ctrls.dram.perBankWrBursts::13            0                       # Per bank write bursts (Count)
system.mem_ctrls.dram.perBankWrBursts::14            0                       # Per bank write bursts (Count)
system.mem_ctrls.dram.perBankWrBursts::15            0                       # Per bank write bursts (Count)
system.mem_ctrls.dram.totQLat                 3624250                       # Total ticks spent queuing (Tick)
system.mem_ctrls.dram.totBusLat               3440000                       # Total ticks spent in databus transfers (Tick)
system.mem_ctrls.dram.totMemAccLat           16524250                       # Total ticks spent from burst creation until serviced by the DRAM (Tick)
system.mem_ctrls.dram.avgQLat                 5267.81                       # Average queueing delay per DRAM burst ((Tick/Count))
system.mem_ctrls.dram.avgBusLat               5000.00                       # Average bus latency per DRAM burst ((Tick/Count))
system.mem_ctrls.dram.avgMemAccLat           24017.81                       # Average memory access latency per DRAM burst ((Tick/Count))
system.mem_ctrls.dram.readRowHits                 613                       # Number of row buffer hits during reads (Count)
system.mem_ctrls.dram.writeRowHits                  0                       # Number of row buffer hits during writes (Count)
system.mem_ctrls.dram.readRowHitRate            89.10                       # Row buffer hit rate for reads (Ratio)
system.mem_ctrls.dram.writeRowHitRate             nan                       # Row buffer hit rate for writes (Ratio)
system.mem_ctrls.dram.bytesPerActivate::samples           71                       # Bytes accessed per row activation (Byte)
system.mem_ctrls.dram.bytesPerActivate::mean   605.746479                       # Bytes accessed per row activation (Byte)
system.mem_ctrls.dram.bytesPerActivate::gmean   438.261835                       # Bytes accessed per row activation (Byte)
system.mem_ctrls.dram.bytesPerActivate::stdev   367.943308                       # Bytes accessed per row activation (Byte)
system.mem_ctrls.dram.bytesPerActivate::0-127            8     11.27%     11.27% # Bytes accessed per row activation (Byte)
system.mem_ctrls.dram.bytesPerActivate::128-255            9     12.68%     23.94% # Bytes accessed per row activation (Byte)
system.mem_ctrls.dram.bytesPerActivate::256-383            7      9.86%     33.80% # Bytes accessed per row activation (Byte)
system.mem_ctrls.dram.bytesPerActivate::384-511            2      2.82%     36.62% # Bytes accessed per row activation (Byte)
system.mem_ctrls.dram.bytesPerActivate::512-639            7      9.86%     46.48% # Bytes accessed per row activation (Byte)
system.mem_ctrls.dram.bytesPerActivate::640-767            4      5.63%     52.11% # Bytes accessed per row activation (Byte)
system.mem_ctrls.dram.bytesPerActivate::768-895           10     14.08%     66.20% # Bytes accessed per row activation (Byte)
system.mem_ctrls.dram.bytesPerActivate::896-1023            2      2.82%     69.01% # Bytes accessed per row activation (Byte)
system.mem_ctrls.dram.bytesPerActivate::1024-1151           22     30.99%    100.00% # Bytes accessed per row activation (Byte)
system.mem_ctrls.dram.bytesPerActivate::total           71                       # Bytes accessed per row activation (Byte)
system.mem_ctrls.dram.dramBytesRead             44032                       # Total bytes read (Byte)
system.mem_ctrls.dram.dramBytesWritten              0                       # Total bytes written (Byte)
system.mem_ctrls.dram.avgRdBW              231.450138                       # Average DRAM read bandwidth in MiBytes/s ((Byte/Second))
system.mem_ctrls.dram.avgWrBW                       0                       # Average DRAM write bandwidth in MiBytes/s ((Byte/Second))
system.mem_ctrls.dram.peakBW                 12800.00                       # Theoretical peak bandwidth in MiByte/s ((Byte/Second))
system.mem_ctrls.dram.busUtil                    1.81                       # Data bus utilization in percentage (Ratio)
system.mem_ctrls.dram.busUtilRead                1.81                       # Data bus utilization in percentage for reads (Ratio)
system.mem_ctrls.dram.busUtilWrite               0.00                       # Data bus utilization in percentage for writes (Ratio)
system.mem_ctrls.dram.pageHitRate               89.10                       # Row buffer hit rate, read and write combined (Ratio)
system.mem_ctrls.dram.power_state.pwrStateResidencyTicks::UNDEFINED    190244000                       # Cumulative time (in ticks) in various power states (Tick)
system.mem_ctrls.dram.rank0.actEnergy          385560                       # Energy for activate commands per rank (pJ) (Joule)
system.mem_ctrls.dram.rank0.preEnergy          189750                       # Energy for precharge commands per rank (pJ) (Joule)
system.mem_ctrls.dram.rank0.readEnergy        3520020                       # Energy for read commands per rank (pJ) (Joule)
system.mem_ctrls.dram.rank0.writeEnergy             0                       # Energy for write commands per rank (pJ) (Joule)
system.mem_ctrls.dram.rank0.refreshEnergy 14751360.000000                       # Energy for refresh commands per rank (pJ) (Joule)
system.mem_ctrls.dram.rank0.actBackEnergy     46973130                       # Energy for active background per rank (pJ) (Joule)
system.mem_ctrls.dram.rank0.preBackEnergy     33497760                       # Energy for precharge background per rank (pJ) (Joule)
system.mem_ctrls.dram.rank0.actPowerDownEnergy            0                       # Energy for active power-down per rank (pJ) (Joule)
system.mem_ctrls.dram.rank0.prePowerDownEnergy            0                       # Energy for precharge power-down per rank (pJ) (Joule)
system.mem_ctrls.dram.rank0.selfRefreshEnergy            0                       # Energy for self refresh per rank (pJ) (Joule)
system.mem_ctrls.dram.rank0.totalEnergy      99317580                       # Total energy per rank (pJ) (Joule)
system.mem_ctrls.dram.rank0.averagePower   522.053678                       # Core power per rank (mW) (Watt)
system.mem_ctrls.dram.rank0.totalIdleTime            0                       # Total Idle time Per DRAM Rank (Tick)
system.mem_ctrls.dram.rank0.pwrStateTime::IDLE     86599000                       # Time in different power states (Tick)
system.mem_ctrls.dram.rank0.pwrStateTime::REF      6240000                       # Time in different power states (Tick)
system.mem_ctrls.dram.rank0.pwrStateTime::SREF            0                       # Time in different power states (Tick)
system.mem_ctrls.dram.rank0.pwrStateTime::PRE_PDN            0                       # Time in different power states (Tick)
system.mem_ctrls.dram.rank0.pwrStateTime::ACT     97405000                       # Time in different power states (Tick)
system.mem_ctrls.dram.rank0.pwrStateTime::ACT_PDN            0                       # Time in different power states (Tick)
system.mem_ctrls.dram.rank1.actEnergy          149940                       # Energy for activate commands per rank (pJ) (Joule)
system.mem_ctrls.dram.rank1.preEnergy           79695                       # Energy for precharge commands per rank (pJ) (Joule)
system.mem_ctrls.dram.rank1.readEnergy        1392300                       # Energy for read commands per rank (pJ) (Joule)
system.mem_ctrls.dram.rank1.writeEnergy             0                       # Energy for write commands per rank (pJ) (Joule)
system.mem_ctrls.dram.rank1.refreshEnergy 14751360.000000                       # Energy for refresh commands per rank (pJ) (Joule)
system.mem_ctrls.dram.rank1.actBackEnergy     36749040                       # Energy for active background per rank (pJ) (Joule)
system.mem_ctrls.dram.rank1.preBackEnergy     42107520                       # Energy for precharge background per rank (pJ) (Joule)
system.mem_ctrls.dram.rank1.actPowerDownEnergy            0                       # Energy for active power-down per rank (pJ) (Joule)
system.mem_ctrls.dram.rank1.prePowerDownEnergy            0                       # Energy for precharge power-down per rank (pJ) (Joule)
system.mem_ctrls.dram.rank1.selfRefreshEnergy            0                       # Energy for self refresh per rank (pJ) (Joule)
system.mem_ctrls.dram.rank1.totalEnergy      95229855                       # Total energy per rank (pJ) (Joule)
system.mem_ctrls.dram.rank1.averagePower   500.566930                       # Core power per rank (mW) (Watt)
system.mem_ctrls.dram.rank1.totalIdleTime            0                       # Total Idle time Per DRAM Rank (Tick)
system.mem_ctrls.dram.rank1.pwrStateTime::IDLE    109116250                       # Time in different power states (Tick)
system.mem_ctrls.dram.rank1.pwrStateTime::REF      6240000                       # Time in different power states (Tick)
system.mem_ctrls.dram.rank1.pwrStateTime::SREF            0                       # Time in different power states (Tick)
system.mem_ctrls.dram.rank1.pwrStateTime::PRE_PDN            0                       # Time in different power states (Tick)
system.mem_ctrls.dram.rank1.pwrStateTime::ACT     74887750                       # Time in different power states (Tick)
system.mem_ctrls.dram.rank1.pwrStateTime::ACT_PDN            0                       # Time in different power states (Tick)
system.mem_ctrls.power_state.pwrStateResidencyTicks::UNDEFINED    190244000                       # Cumulative time (in ticks) in various power states (Tick)
system.membus.transDist::ReadResp                 273                       # Transaction distribution (Count)
system.membus.transDist::WritebackClean            25                       # Transaction distribution (Count)
system.membus.transDist::ReadExReq                431                       # Transaction distribution (Count)
system.membus.transDist::ReadExResp               431                       # Transaction distribution (Count)
system.membus.transDist::ReadCleanReq             251                       # Transaction distribution (Count)
system.membus.transDist::ReadSharedReq             23                       # Transaction distribution (Count)
system.membus.transDist::InvalidateReq            127                       # Transaction distribution (Count)
system.membus.pktCount_system.cpu.icache.mem_side_port::system.mem_ctrls.port          526                       # Packet count per connected requestor and responder (Count)
system.membus.pktCount_system.cpu.dcache.mem_side_port::system.mem_ctrls.port         1035                       # Packet count per connected requestor and responder (Count)
system.membus.pktCount::total                    1561                       # Packet count per connected requestor and responder (Count)
system.membus.pktSize_system.cpu.icache.mem_side_port::system.mem_ctrls.port        17600                       # Cumulative packet size per connected requestor and responder (Byte)
system.membus.pktSize_system.cpu.dcache.mem_side_port::system.mem_ctrls.port        29056                       # Cumulative packet size per connected requestor and responder (Byte)
system.membus.pktSize::total                    46656                       # Cumulative packet size per connected requestor and responder (Byte)
system.membus.snoops                                0                       # Total snoops (Count)
system.membus.snoopTraffic                          0                       # Total snoop traffic (Byte)
system.membus.snoopFanout::samples                832                       # Request fanout histogram (Count)
system.membus.snoopFanout::mean                     0                       # Request fanout histogram (Count)
system.membus.snoopFanout::stdev                    0                       # Request fanout histogram (Count)
system.membus.snoopFanout::underflows               0      0.00%      0.00% # Request fanout histogram (Count)
system.membus.snoopFanout::0                      832    100.00%    100.00% # Request fanout histogram (Count)
system.membus.snoopFanout::1                        0      0.00%    100.00% # Request fanout histogram (Count)
system.membus.snoopFanout::2                        0      0.00%    100.00% # Request fanout histogram (Count)
system.membus.snoopFanout::3                        0      0.00%    100.00% # Request fanout histogram (Count)
system.membus.snoopFanout::4                        0      0.00%    100.00% # Request fanout histogram (Count)
system.membus.snoopFanout::overflows                0      0.00%    100.00% # Request fanout histogram (Count)
system.membus.snoopFanout::min_value                0                       # Request fanout histogram (Count)
system.membus.snoopFanout::max_value                0                       # Request fanout histogram (Count)
system.membus.snoopFanout::total                  832                       # Request fanout histogram (Count)
system.membus.power_state.pwrStateResidencyTicks::UNDEFINED    190244000                       # Cumulative time (in ticks) in various power states (Tick)
system.membus.reqLayer0.occupancy             1139000                       # Layer occupancy (ticks) (Tick)
system.membus.reqLayer0.utilization               0.0                       # Layer utilization (Ratio)
system.membus.respLayer1.occupancy            1314250                       # Layer occupancy (ticks) (Tick)
system.membus.respLayer1.utilization              0.0                       # Layer utilization (Ratio)
system.membus.respLayer2.occupancy            2393500                       # Layer occupancy (ticks) (Tick)
system.membus.respLayer2.utilization              0.0                       # Layer utilization (Ratio)
system.membus.snoop_filter.totRequests            857                       # Total number of requests made to the snoop filter. (Count)
system.membus.snoop_filter.hitSingleRequests           25                       # Number of requests hitting in the snoop filter with a single holder of the requested data. (Count)
system.membus.snoop_filter.hitMultiRequests            0                       # Number of requests hitting in the snoop filter with multiple (>1) holders of the requested data. (Count)
system.membus.snoop_filter.totSnoops                0                       # Total number of snoops made to the snoop filter. (Count)
system.membus.snoop_filter.hitSingleSnoops            0                       # Number of snoops hitting in the snoop filter with a single holder of the requested data. (Count)
system.membus.snoop_filter.hitMultiSnoops            0                       # Number of snoops hitting in the snoop filter with multiple (>1) holders of the requested data. (Count)
system.voltage_domain.voltage                       1                       # Voltage in Volts (Volt)
system.workload.inst.arm                            0                       # number of arm instructions executed (Count)
system.workload.inst.quiesce                        0                       # number of quiesce instructions executed (Count)
system.cpu.idleCycles                           51519                       # Total number of cycles that the object has spent stopped (Unspecified)
system.cpu.tickCycles                          328969                       # Number of cycles that the object actually ticked (Unspecified)

---------- End Simulation Statistics   ----------
